  do_rtm = .false.
  ice_runoff  = .false. 
