 qgwl_runoff_option = 'all'
 bypass_routing_option = 'direct_to_outlet'
